 Abaqus/Standard 6.14-1                  DATE 16-oct.-2020 TIME 13:20:11
 SUMMARY OF JOB INFORMATION:
 STEP  INC ATT SEVERE EQUIL TOTAL  TOTAL      STEP       INC OF       DOF    IF
               DISCON ITERS ITERS  TIME/    TIME/LPF    TIME/LPF    MONITOR RIKS
               ITERS               FREQ
   1     1   1     0     1     1  0.0100     0.0100     0.01000   
   1     2   1     0     1     1  0.0200     0.0200     0.01000   
   1     3   1     0     1     1  0.0350     0.0350     0.01500   
   1     4   1     0     1     1  0.0575     0.0575     0.02250   
   1     5   1     0     1     1  0.0912     0.0912     0.03375   
   1     6   1     0     1     1  0.142      0.142      0.05063   
   1     7   1     0     1     1  0.218      0.218      0.07594   
   1     8   1     0     1     1  0.332      0.332      0.1139    
   1     9   1     0     3     3  0.503      0.503      0.1709    
   1    10   1U    0     3     3  0.503      0.503      0.2563    
   1    10   2     0     3     3  0.567      0.567      0.06407   
   1    11   1U    0     4     4  0.567      0.567      0.09611   
   1    11   2     0     8     8  0.591      0.591      0.02403   
   1    12   1     0     7     7  0.615      0.615      0.02403   
   1    13   1     0     5     5  0.639      0.639      0.02403   
   1    14   1     0     6     6  0.663      0.663      0.02403   
   1    15   1     0     6     6  0.687      0.687      0.02403   
   1    16   1     0     5     5  0.711      0.711      0.02403   
   1    17   1     0     5     5  0.735      0.735      0.02403   
   1    18   1     0     5     5  0.759      0.759      0.02403   
   1    19   1     0     6     6  0.783      0.783      0.02403   
   1    20   1     0     6     6  0.807      0.807      0.02403   
   1    21   1     0     3     3  0.831      0.831      0.02403   
   1    22   1     0     3     3  0.855      0.855      0.02403   
   1    23   1     0     4     4  0.891      0.891      0.03604   
   1    24   1     0     4     4  0.945      0.945      0.05406   
   1    25   1     0     3     3  1.00       1.00       0.05492   
                          
 THE ANALYSIS HAS COMPLETED SUCCESSFULLY
